Reanalysis-ENP-NOAA     ! 30 CHARACTER ALPHANUM RUN DESCRIPTION
(p)adc(irc|swan) 56.xx  ! 24 CHARACTER ALPANUMERIC RUN IDENTIFICATION
1                       ! NFOVER - NONFATAL ERROR OVERRIDE OPTION
1                       ! NABOUT - ABREVIATED OUTPUT OPTION PARAMETER
-240                    ! NSCREEN - UNIT 6 OUTPUT OPTION PARAMETER
0                       ! IHOT - HOT START PARAMETER
2                       ! ICS - COORDINATE SYSTEM SELECTION PARAMETER
513113                  ! IM - MODEL SELECTION PARAMETER 
1                       ! NOLIBF - BOTTOM FRICTION TERM SELECTION PARAMETER
2                       ! NOLIFA - FINITE AMPLITUDE TERM SELECTION PARAMETER
0                       ! NOLICA - SPATIAL DERIVATIVE CONVECTIVE SELECTION PARAMETER
0                       ! NOLICAT - TIME DERIVATIVE CONVECTIVE TERM SELECTION PARAMETER
2                       ! NWP - VARIABLE BOTTOM FRICTION AND LATERAL VISCOSITY OPTION PARAMETER
mannings_n_at_sea_floor
internal_tide_friction
1                       ! NCOR - VARIABLE CORIOLIS IN SPACE OPTION PARAMETER
1                       ! NTIP - TIDAL POTENTIAL OPTION PARAMETER
<NWS>                   ! NWS - WIND STRESS AND BAROMETRIC PRESSURE OPTION PARAMETER
! 14                      ! NWS - WIND STRESS AND BAROMETRIC PRESSURE OPTION PARAMETER
1                       ! NRAMP - RAMP FUNCTION OPTION
9.81                    ! G - ACCELERATION DUE TO GRAVITY - DETERMINES UNITS
.0533333                ! TAU0 - WEIGHTING FACTOR IN GWCE
! 6.0                     ! DT - TIME STEP (IN SECONDS)
<DT>                     ! DT - TIME STEP (IN SECONDS)
0.00                    ! STATIM - STARTING TIME (IN DAYS)
0.00                    ! REFTIM - REFERENCE TIME (IN DAYS)
! <WTIMINC>                ! WTIMINCI
3600.000000             ! Wind/RadStress Time Increment(s)
<RNDAY>                 ! RNDAY - TOTAL LENGTH OF SIMULATION (IN DAYS)
!397.0                    ! RNDAY - TOTAL LENGTH OF SIMULATION (IN DAYS)
<DRAMP>                 ! DRAMP - DURATION OF RAMP FUNCTION (IN DAYS)
! 10.0                    ! DRAMP - DURATION OF RAMP FUNCTION (IN DAYS)
0.8 0.2 0.0             ! TIME WEIGHTING FACTORS FOR THE GWCE EQUATION
0.10 0 0 0.01           ! H0, NODEDRYMIN, NODEWETMIN, VELMIN
222.286582 46.136879    ! SLAM0,SFEA0 - CENTER OF CPP PROJECTION (NOT USED IF ICS=1, NTIP=0, NCOR=0)
0.00050                 ! FFACTOR
-0.2                    ! ESL - LATERAL EDDY VISCOSITY COEFFICIENT; IGNORED IF NWP =1
0.0                     ! CORI - CORIOLIS PARAMETER - IGNORED IF NCOR = 1
! <TidalPotentialBlock>
! <TidalElevationBlock>
 8  ! NTIF - TOTAL NUMBER OF TIDAL POTENTIAL CONSTITUENTS  
Q1
 0.019256   0.64958540E-04    0.69500   0.9719  154.610  !  TPK, AMIGT, ETRF, FFT, FACET , 1 Dec 1978
O1
 0.100514   0.67597742E-04    0.69500   0.9719  351.579
P1
 0.046843   0.72522944E-04    0.70600   1.0000   34.162
K1
 0.141565   0.72921160E-04    0.73600   0.9827  317.000
N2
 0.046398   0.13787970E-03    0.69300   1.0103  107.450
M2
 0.242334   0.14051890E-03    0.69300   1.0103  304.419
S2
 0.112841   0.14544410E-03    0.69300   1.0000    0.000
K2
 0.030704   0.14584232E-03    0.69300   0.9384   94.193
 8  !  NBFR - TOTAL NUMBER OF FORCING FREQUENCIES ON OPEN BOUNDARIES
Q1
  0.64958540E-04   0.9719  154.610
O1
  0.67597742E-04   0.9719  351.579
P1
  0.72522944E-04   1.0000   34.162
K1
  0.72921160E-04   0.9827  317.000
N2
  0.13787970E-03   1.0103  107.450
M2
  0.14051890E-03   1.0103  304.419
S2
  0.14544410E-03   1.0000    0.000
K2
  0.14584232E-03   0.9384   94.193
Q1 
 2.893948910e-02      165.2375519 
 2.895361321e-02      165.3099654 
 2.896589596e-02      165.3796224 
 2.897723692e-02       165.445214 
 2.898896944e-02      165.5045758 
 2.900505613e-02      165.5837142 
 2.902134799e-02      165.6699372 
 2.903621737e-02      165.7642439 
 2.904767674e-02      165.8631432 
 2.906131181e-02      165.9706786 
 2.907892452e-02      166.0883103 
 2.910454357e-02      166.2132934 
 2.914060803e-02      166.3426836 
 2.917848174e-02      166.4808987 
 2.919930934e-02      166.5773729 
 2.920431408e-02       166.599454 
 2.918503557e-02      166.7289465 
 2.915157431e-02      166.9794739 
 2.911147687e-02      167.2607772 
 2.907462706e-02       167.531454 
 2.903573641e-02      167.7980598 
 2.899504743e-02      168.0605128 
 2.895392062e-02      168.3179851 
 2.891067582e-02      168.5717916 
 2.886831506e-02      168.8229593 
 2.882621165e-02       169.069853 
 2.878177524e-02      169.3124421 
 2.873622794e-02      169.5502125 
 2.869005995e-02      169.7838119 
 2.864264635e-02      170.0137431 
 2.859515536e-02      170.2389279 
 2.854712589e-02      170.4608442 
 2.849883731e-02      170.6798884 
 2.845077504e-02      170.8952741 
 2.840206832e-02      171.1073735 
 2.835335470e-02      171.3166506 
 2.830469471e-02      171.5220826 
 2.825511577e-02      171.7238922 
 2.820524768e-02      171.9227565 
 2.815559317e-02      172.1184022 
 2.810524373e-02      172.3107599 
 2.805457614e-02      172.5003902 
 2.800412558e-02      172.6875132 
 2.795356771e-02      172.8723954 
 2.790280155e-02       173.054601 
 2.785213352e-02      173.2343988 
 2.780119070e-02      173.4122494 
 2.774982182e-02      173.5876149 
 2.769882307e-02      173.7605992 
 2.764768612e-02      173.9319449 
 2.759627479e-02       174.101464 
 2.754526546e-02      174.2687189 
 2.749392241e-02      174.4341994 
 2.744261092e-02      174.5978569 
 2.739121621e-02      174.7593135 
 2.733930584e-02      174.9183984 
 2.728755099e-02      175.0757958 
 2.723569410e-02      175.2312228 
 2.718346292e-02      175.3843255 
 2.713116033e-02      175.5360355 
 2.707868219e-02      175.6862237 
 2.702633971e-02       175.834734 
 2.697170733e-02      175.9795204 
 2.691183833e-02      176.1164227 
 2.685215630e-02      176.2519422 
 2.679247506e-02      176.3868626 
 2.673590295e-02      176.5242463 
 2.668192026e-02      176.6638279 
 2.662770047e-02      176.8026694 
 2.657421188e-02      176.9403719 
 2.652407275e-02      177.0811762 
 2.647452365e-02       177.221861 
 2.642489804e-02      177.3607157 
 2.637502555e-02      177.4984398 
 2.632528663e-02       177.635129 
 2.627535453e-02      177.7704204 
 2.622500659e-02      177.9045582 
 2.617461406e-02      178.0372331 
 2.612362984e-02      178.1686378 
 2.607242173e-02        178.29879 
 2.602118513e-02       178.427558 
 2.596936377e-02      178.5552901 
 2.591746175e-02      178.6816801 
 2.586558053e-02      178.8073388 
 2.581311737e-02      178.9316001 
 2.576053950e-02        179.05418 
 2.570754792e-02      179.1756916 
 2.565446481e-02      179.2964112 
 2.560164069e-02      179.4169122 
 2.554864877e-02      179.5369068 
 2.549565817e-02      179.6556619 
 2.544233068e-02      179.7735155 
 2.538877886e-02      179.8898046 
 2.533506082e-02      180.0046981 
 2.528116343e-02      180.1188586 
 2.522714626e-02      180.2312076 
 2.517282668e-02      180.3423116 
 2.511822465e-02       180.452242 
 2.506352772e-02      180.5603443 
 2.500849142e-02      180.6674449 
 2.495342467e-02      180.7737102 
 2.489847674e-02      180.8789545 
 2.484317650e-02      180.9836381 
 2.478789292e-02      181.0871432 
 2.473246059e-02      181.1896348 
 2.467698970e-02      181.2910779 
 2.462141173e-02      181.3914838 
 2.456578540e-02      181.4912927 
 2.451036755e-02      181.5904816 
 2.445475094e-02      181.6885166 
 2.439909071e-02      181.7859606 
 2.434350576e-02       181.882601 
 2.428775873e-02      181.9780862 
 2.423198796e-02       182.072877 
 2.417620327e-02      182.1666716 
 2.412043459e-02      182.2596007 
 2.406456294e-02      182.3518492 
 2.400851295e-02      182.4427689 
 2.395266207e-02      182.5330022 
 2.389690024e-02      182.6229586 
 2.384109382e-02      182.7118488 
 2.378525157e-02      182.8001667 
 2.372936112e-02       182.887638 
 2.367354290e-02      182.9740214 
 2.361752103e-02      183.0596201 
 2.356156487e-02       183.144582 
 2.350579296e-02      183.2288818 
 2.344983137e-02      183.3126158 
 2.339373662e-02      183.3951953 
 2.333799787e-02      183.4773844 
 2.328207611e-02      183.5588019 
 2.322613228e-02      183.6390998 
 2.317005808e-02      183.7189062 
 2.311415161e-02       183.798277 
 2.305832531e-02       183.876692 
 2.300227281e-02      183.9549604 
 2.294634426e-02      184.0324588 
 2.289052640e-02      184.1094348 
 2.283472207e-02      184.1862551 
 2.277876013e-02      184.2621066 
 2.272302976e-02      184.3375453 
 2.266727007e-02      184.4127283 
 2.261147823e-02      184.4871244 
 2.255562929e-02       184.560822 
 2.250009841e-02      184.6345862 
 2.244445069e-02      184.7073484 
 2.238864241e-02      184.7793212 
 2.233281496e-02      184.8505967 
 2.227704814e-02      184.9213327 
 2.222119102e-02      184.9915903 
 2.216540314e-02      185.0616359 
 2.210968917e-02      185.1311042 
 2.205399045e-02       185.200196 
 2.199821139e-02      185.2688745 
 2.194248749e-02      185.3371676 
 2.188716360e-02      185.4051698 
 2.183168920e-02      185.4729188 
 2.177621066e-02      185.5403065 
 2.172100906e-02      185.6068942 
 2.166545358e-02      185.6729516 
 2.160982012e-02      185.7381205 
 2.155429049e-02      185.8025438 
 2.149856070e-02      185.8665449 
 2.144295365e-02      185.9297511 
 2.138714994e-02      185.9923996 
 2.133148238e-02      186.0549157 
 2.127610515e-02      186.1174781 
 2.122063969e-02      186.1795062 
 2.116502312e-02      186.2410988 
 2.110991618e-02      186.3028672 
 2.105504333e-02      186.3646789 
 2.099996063e-02       186.425877 
 2.094501919e-02      186.4863857 
 2.088997231e-02      186.5466778 
 2.083502756e-02       186.606626 
 2.078006303e-02      186.6658173 
 2.072508523e-02      186.7246707 
 2.067036455e-02      186.7836689 
 2.061572712e-02      186.8422608 
 2.056094060e-02       186.900111 
 2.050645589e-02      186.9576886 
 2.045183651e-02      187.0146447 
 2.039709630e-02      187.0709869 
 2.034235946e-02      187.1265688 
 2.028789543e-02      187.1815288 
 2.023315288e-02      187.2363015 
 2.017829453e-02        187.28997 
 2.012353916e-02      187.3430623 
 2.006895267e-02      187.3962769 
 2.001420340e-02      187.4492886 
 1.995949646e-02      187.5014332 
 1.990491315e-02      187.5533963 
 1.985034185e-02      187.6048076 
 1.979565062e-02      187.6553173 
 1.974051416e-02      187.7047607 
 1.968580733e-02      187.7540006 
 1.963096450e-02      187.8024616 
 1.957583307e-02      187.8501646 
 1.952079556e-02      187.8975094 
 1.946587057e-02      187.9448461 
 1.941087047e-02      187.9913922 
 1.935575703e-02      188.0372631 
 1.930069259e-02      188.0828931 
 1.924567929e-02      188.1283987 
 1.919055547e-02      188.1734473 
 1.913543690e-02      188.2178942 
 1.908064561e-02      188.2622554 
 1.902580448e-02      188.3063484 
 1.897068160e-02      188.3492306 
 1.891535202e-02      188.3915806 
 1.886044105e-02      188.4338821 
 1.880554872e-02      188.4757576 
 1.875044893e-02      188.5179117 
 1.869565668e-02      188.5597005 
 1.864102161e-02      188.6016664 
 1.858629540e-02      188.6430674 
 1.853168639e-02      188.6837398 
 1.847688417e-02      188.7242386 
 1.842215167e-02      188.7638022 
 1.836706562e-02      188.8026015 
 1.831183892e-02      188.8404927 
 1.825670901e-02      188.8775744 
 1.820133786e-02      188.9141505 
 1.814590099e-02      188.9499017 
 1.809045572e-02      188.9852699 
 1.803510942e-02      189.0204205 
 1.797960591e-02      189.0548921 
 1.792401633e-02      189.0889174 
 1.786840061e-02      189.1221989 
 1.781286228e-02      189.1552719 
 1.775715414e-02      189.1874499 
 1.770138761e-02       189.218911 
 1.764540913e-02      189.2499263 
 1.758936333e-02       189.279936 
 1.753303813e-02      189.3087354 
 1.747663634e-02       189.336803 
 1.742017843e-02      189.3641889 
 1.736361483e-02      189.3908283 
 1.730686321e-02      189.4167359 
 1.725023397e-02      189.4425847 
 1.719360859e-02       189.468141 
 1.713681655e-02      189.4929512 
 1.707996179e-02      189.5172919 
 1.702287031e-02      189.5406495 
 1.696557392e-02      189.5633439 
 1.690811526e-02      189.5851556 
 1.685065030e-02      189.6065492 
 1.679304430e-02      189.6274801 
 1.673529408e-02      189.6476224 
 1.667722778e-02      189.6669243 
 1.661924399e-02      189.6862903 
 1.656126351e-02      189.7056061 
 1.650327839e-02      189.7252045 
 1.644535876e-02      189.7446078 
 1.638760210e-02      189.7638407 
 1.632975005e-02      189.7824047 
 1.627175266e-02      189.8002892 
 1.621381897e-02      189.8179871 
 1.615579658e-02      189.8357277 
 1.609770309e-02      189.8530982 
 1.603939887e-02      189.8698924 
 1.598098995e-02      189.8862241 
 1.592238756e-02      189.9017909 
 1.586343978e-02      189.9165726 
 1.580428521e-02      189.9304667 
 1.574516227e-02      189.9447585 
 1.568591929e-02      189.9591781 
 1.562661747e-02       189.973871 
 1.556740401e-02       189.989011 
 1.550833685e-02      190.0044209 
 1.544902092e-02      190.0193887 
 1.538959298e-02      190.0338118 
 1.533022305e-02      190.0481287 
 1.527079536e-02      190.0623232 
 1.521126994e-02      190.0757961 
 1.515168113e-02      190.0888167 
 1.509210777e-02      190.1013063 
 1.503233488e-02      190.1128855 
 1.497237883e-02      190.1237364 
 1.491233390e-02      190.1344093 
 1.485240974e-02      190.1458453 
 1.479232728e-02      190.1562157 
 1.473203015e-02      190.1658025 
 1.467159616e-02      190.1752434 
 1.461131588e-02      190.1842743 
 1.455070978e-02      190.1928099 
 1.448997954e-02      190.2004677 
 1.442914667e-02      190.2075711 
 1.436814308e-02      190.2142628 
 1.430692828e-02      190.2199575 
 1.424551317e-02      190.2252201 
 1.418409096e-02      190.2304184 
 1.412262250e-02      190.2353796 
 1.406111212e-02      190.2402339 
 1.399959357e-02        190.24529 
 1.393809475e-02      190.2507618 
 1.387639910e-02      190.2558219 
 1.381461585e-02      190.2605406 
 1.375285510e-02      190.2651537 
 1.369119125e-02      190.2699381 
 1.362927606e-02      190.2743877 
 1.356751160e-02      190.2794491 
 1.350571227e-02      190.2846413 
 1.344391869e-02      190.2897562 
 1.338205156e-02      190.2943704 
 1.331996336e-02      190.2983644 
 1.325803293e-02      190.3025974 
 1.319585699e-02      190.3060745 
 1.313357190e-02      190.3091871 
 1.307130751e-02      190.3124044 
 1.300887220e-02      190.3154294 
 1.294645794e-02      190.3188706 
 1.288391401e-02      190.3224118 
 1.282143292e-02      190.3263013 
 1.275897542e-02      190.3302883 
 1.269635966e-02      190.3338289 
 1.263376920e-02      190.3375552 
 1.257096424e-02      190.3406724 
 1.250794959e-02      190.3433248 
 1.244465623e-02       190.345141 
 1.238136712e-02       190.346911 
 1.231780135e-02      190.3476725 
 1.225388991e-02      190.3476176 
 1.218994811e-02      190.3473051 
 1.212612241e-02      190.3472394 
 1.206227999e-02       190.346543 
 1.199839548e-02      190.3445687 
 1.193450986e-02      190.3424065 
 1.187070230e-02      190.3398461 
 1.180666840e-02      190.3358242 
 1.174228313e-02       190.330333 
 1.167802923e-02      190.3254559 
 1.161385002e-02      190.3207646 
 1.154984818e-02       190.316882 
 1.148602540e-02      190.3138518 
 1.142263250e-02        190.31304 
 1.135910577e-02       190.312703 
 1.129545166e-02      190.3130407 
 1.123184957e-02      190.3144376 
 1.116856869e-02      190.3176053 
 1.110509166e-02      190.3200435 
 1.104150346e-02      190.3219842 
 1.097813700e-02      190.3249191 
 1.091471119e-02      190.3285364 
 1.085104544e-02      190.3327905 
 1.078720737e-02      190.3370881 
 1.072356574e-02      190.3429846 
 1.065976892e-02      190.3492198 
 1.059562485e-02        190.35494 
 1.053138649e-02      190.3601522 
 1.046735734e-02      190.3672273 
 1.040320273e-02      190.3734778 
 1.033907690e-02      190.3792931 
 1.027512552e-02      190.3857872 
 1.021188726e-02      190.3949517 
 1.014839145e-02      190.4040757 
 1.008490718e-02      190.4145814 
 1.002174877e-02      190.4276229 
 9.958837973e-03      190.4424313 
 9.896320390e-03      190.4589246 
 9.834235485e-03      190.4776025 
 9.772924622e-03      190.4998804 
 9.711546765e-03      190.5228803 
 9.649945970e-03       190.546481 
 9.588308017e-03      190.5719517 
 9.526741816e-03      190.5995363 
 9.465040734e-03      190.6291283 
 9.403436435e-03      190.6621464 
 9.342142148e-03      190.6987887 
 9.281337381e-03       190.738422 
 9.220343631e-03      190.7785681 
 9.159794533e-03       190.820993 
 9.099401157e-03      190.8660311 
 9.038976141e-03      190.9127074 
 8.978412272e-03      190.9598039 
 8.918534795e-03      191.0099888 
 8.859210480e-03      191.0613987 
 8.799611800e-03      191.1139343 
 8.739829193e-03      191.1680846 
 8.680028093e-03      191.2246541 
 8.620026187e-03      191.2832205 
 8.559494001e-03      191.3419579 
 8.499025893e-03      191.4020685 
 8.438786265e-03      191.4637363 
 8.378684670e-03      191.5263645 
 8.318354880e-03      191.5882555 
 8.258720821e-03       191.653221 
 8.198971910e-03      191.7200807 
 8.138774115e-03      191.7877907 
 8.077994798e-03      191.8552943 
 8.017344831e-03      191.9247874 
 7.956594437e-03      191.9949532 
 7.895242054e-03      192.0646905 
 7.832912201e-03      192.1353857 
 7.768830376e-03      192.2067587 
 7.703209563e-03      192.2776394 
 7.638245847e-03       192.346847 
 7.575529999e-03      192.4153816 
 7.515072056e-03      192.4818648 
 7.456510528e-03      192.5525338 
 7.398625640e-03      192.6308123 
 7.341323975e-03      192.7190292 
 7.283981474e-03      192.8124411 
 7.226505960e-03      192.9087836 
 7.168960647e-03      193.0056414 
 7.111541035e-03      193.1079515 
 7.053852058e-03       193.214215 
 6.995939948e-03      193.3261191 
 6.938363816e-03      193.4452039 
 6.881540449e-03       193.568373 
 6.824768804e-03      193.6929617 
 6.767963056e-03      193.8185648 
 6.711302941e-03      193.9469282 
 6.654489878e-03      194.0776753 
 6.597205705e-03      194.2101824 
 6.539550701e-03      194.3452069 
 6.482116679e-03      194.4851109 
 6.424537495e-03      194.6281611 
 6.366855805e-03      194.7718987 
 6.309319452e-03      194.9184821 
 6.252345441e-03      195.0710211 
 6.195410530e-03      195.2258738 
 6.138563014e-03      195.3857586 
 6.081650021e-03      195.5504644 
 6.025178783e-03      195.7194062 
 5.968767737e-03      195.8901443 
 5.912801029e-03      196.0632238 
 5.856839573e-03      196.2410396 
 5.801143800e-03      196.4235538 
 5.745499218e-03      196.6100222 
 5.689673021e-03      196.8031617 
 5.633861459e-03      197.0026522 
 5.577985601e-03      197.2063193 
 5.522117891e-03      197.4146173 
 5.466297930e-03      197.6279661 
 5.410734445e-03      197.8458124 
 5.354939751e-03      198.0650101 
 5.299350998e-03      198.2900796 
 5.243914726e-03      198.5213882 
 5.188444877e-03      198.7585237 
 5.132328656e-03      199.0006567 
 5.076099418e-03      199.2527402 
 5.019652884e-03      199.5135582 
 4.963281585e-03      199.7888572 
 4.907309164e-03      200.0769887 
 4.851877261e-03      200.3742458 
 4.796491223e-03      200.6826867 
 4.741512279e-03      201.0094618 
 4.687503962e-03      201.3456105 
 4.634624853e-03      201.6950225 
 4.582755987e-03      202.0584915 
 4.531407515e-03      202.4286654 
 4.480633251e-03      202.8109203 
 4.430272849e-03       203.205121 
 4.379994819e-03      203.6064815 
 4.329092484e-03       204.017841 
 4.278910794e-03       204.448886 
 4.228966583e-03      204.8909059 
 4.179371139e-03      205.3441404 
 4.129549069e-03      205.8083793 
 4.080449779e-03      206.2918612 
 4.031797883e-03      206.7975138 
 3.983949343e-03      207.3163557 
 3.937925225e-03      207.8515956 
 3.893402316e-03      208.4068179 
 3.849633148e-03      208.9793524 
 3.806302484e-03      209.5781045 
 3.763786345e-03      210.1986146 
 3.721603434e-03      210.8411847 
 3.679024179e-03      211.5066898 
 3.635956463e-03      212.1912096 
 3.594440716e-03      212.8937991 
 3.553422071e-03      213.6082568 
 3.511928370e-03      214.3405834 
 3.470676884e-03      215.0905746 
 3.430930253e-03      215.8618944 
 3.392724209e-03      216.6471453 
 3.355831161e-03      217.4441007 
 3.320875923e-03      218.2594602 
 3.287689422e-03      219.0963675 
 3.255269231e-03       219.963503 
 3.223413321e-03      220.8653693 
 3.193269250e-03      221.8139288 
 3.164150083e-03      222.8243089 
 3.136087935e-03      223.8647716 
 3.110878723e-03      224.9186235 
 3.088400815e-03      225.9710915 
 3.066726195e-03      227.0356017 
 3.044890184e-03      228.1203974 
 3.024377029e-03      229.2029766 
 3.006254535e-03      230.2890872 
 2.989066095e-03      231.3930405 
 2.973282827e-03      232.5092517 
 2.959474720e-03      233.6416378 
 2.948109438e-03      234.7750372 
 2.938077757e-03      235.9195056 
 2.929859486e-03      237.0727324 
 2.923588542e-03      238.2361268 
 2.918889566e-03      239.4039959 
 2.915572665e-03      240.5824232 
 2.914005134e-03      241.7604217 
 2.914916465e-03      242.9395109 
 2.916880629e-03      244.1206711 
 2.920318645e-03      245.3081415 
 2.925598655e-03      246.4887031 
 2.932675168e-03      247.6630994 
 2.940907949e-03      248.8360588 
 2.950874277e-03      250.0177329 
 2.962455620e-03      251.1995007 
 2.975938598e-03      252.3792289 
 2.991193954e-03       253.556661 
 3.008877618e-03      254.7319752 
 3.028554800e-03       255.946329 
 3.049738871e-03      257.1950396 
 3.072818732e-03      258.4843476 
 3.098540524e-03      259.8189355 
 3.127811337e-03      261.2560747 
 3.160426527e-03      262.7696666 
 3.196497837e-03      264.2691391 
 3.234766833e-03      265.6606839 
 3.274467140e-03      266.9411719 
 3.314159205e-03      268.1060547 
 3.354636610e-03      269.1807552 
 3.395353392e-03      270.1759798 
 3.436654516e-03       271.131104 
 3.478406551e-03        272.06512 
 3.521605470e-03      272.9629194 
 3.565690057e-03      273.8253118 
 3.610665617e-03      274.6622351 
 3.656737390e-03       275.472891 
 3.704189463e-03      276.2595894 
 3.752416143e-03      277.0244476 
 3.801311695e-03      277.7733655 
 3.850959902e-03      278.5028029 
 3.901403305e-03      279.2129609 
 3.952643378e-03       279.904599 
 4.004643791e-03      280.5784012 
 4.057680157e-03      281.2351212 
 4.111909193e-03      281.8927825 
 4.167196946e-03      282.5489998 
 4.223498640e-03      283.2090701 
 4.280620475e-03      283.8484142 
 4.338388844e-03      284.4635199 
 4.396915936e-03      285.0579697 
 4.456275967e-03       285.630516 
 4.516528636e-03      286.1868636 
 4.577549710e-03       286.732354 
 4.639400404e-03      287.2677959 
 4.702359213e-03       287.792633 
 4.766058855e-03      288.3027921 
 4.830483477e-03      288.8024557 
 4.895876395e-03      289.2966317 
 4.962146885e-03      289.7739301 
 5.029235481e-03      290.2416117 
 5.097129540e-03      290.6998222 
 5.165697753e-03      291.1471621 
 5.235350534e-03      291.5820356 
 5.305733922e-03      292.0073877 
 5.376806849e-03      292.4227001 
 5.448807498e-03      292.8310491 
 5.521689501e-03      293.2251421 
 5.595241194e-03      293.6119117 
 5.669627134e-03      293.9896836 
 5.744809780e-03      294.3545826 
 5.820879042e-03       294.712313 
 5.897670044e-03      295.0622301 
 5.975231103e-03      295.4010574 
 6.053729853e-03      295.7296626 
 6.133004854e-03      296.0507428 
 6.212965321e-03      296.3645252 
 6.293806782e-03      296.6688746 
 6.375519632e-03       296.961039 
 6.457834077e-03      297.2495186 
 6.541176854e-03      297.5288804 
 6.625169320e-03      297.7986009 
 6.709911960e-03       298.060378 
 6.795505109e-03       298.316726 
 6.881842734e-03      298.5637308 
 6.969021150e-03      298.8035015 
 7.056958731e-03      299.0355804 
 7.145437933e-03      299.2636027 
 7.234907614e-03      299.4821705 
 7.325155492e-03      299.6923607 
 7.416024501e-03      299.8988303 
 7.507649383e-03      300.0986252 
 7.600080870e-03      300.2909883 
 7.693306134e-03      300.4764976 
 7.787111515e-03      300.6577878 
 7.881809382e-03       300.833792 
 7.977225195e-03      301.0022029 
 8.073394365e-03      301.1644703 
 8.170153356e-03       301.326159 
 8.267724355e-03      301.4780441 
 8.366067925e-03      301.6238846 
 8.465061132e-03      301.7676223 
 8.564621367e-03      301.9089019 
 8.665131138e-03      302.0390579 
 8.766283610e-03      302.1658786 
 8.867993965e-03      302.2912327 
 8.970384202e-03      302.4121627 
 9.073570328e-03      302.5238151 
 9.177441882e-03      302.6333482 
 9.281805658e-03      302.7424512 
 9.386874982e-03      302.8426609 
 9.492796939e-03      302.9380298 
 9.599224160e-03      303.0318484 
 9.706130147e-03      303.1251029 
 9.814065821e-03      303.2082896 
 9.922558049e-03      303.2888736 
 1.003149956e-02      303.3689862 
 1.014081666e-02      303.4473191 
 1.025146786e-02      303.5127766 
 1.036237334e-02      303.5785717 
 1.047372921e-02      303.6442311 
 1.058597422e-02      303.7059108 
 1.069880016e-02      303.7605243 
 1.081222767e-02      303.8154688 
 1.092620394e-02      303.8698363 
 1.104093678e-02      303.9182869 
 1.115643636e-02      303.9644331 
 1.127251056e-02      304.0105635 
 1.138928192e-02      304.0555517 
 1.150679064e-02      304.0956512 
 1.162500991e-02      304.1340388 
 1.174374411e-02      304.1717071 
 1.186295493e-02      304.2076271 
 1.198288071e-02      304.2385739 
 1.210349763e-02      304.2727145 
 1.222490006e-02      304.3064627 
 1.234711399e-02      304.3380975 
 1.247022030e-02      304.3670401 
 1.259428443e-02      304.3960022 
 1.271894450e-02      304.4236228 
 1.284418445e-02      304.4480787 
 1.297015592e-02      304.4697835 
 1.309683904e-02      304.4910534 
 1.322432643e-02      304.5105933 
 1.335270619e-02      304.5280109 
 1.348200896e-02      304.5456245 
 1.361240428e-02      304.5650015 
 1.374367570e-02       304.583714 
 1.387575536e-02      304.6005507 
 1.400865240e-02       304.618466 
 1.414248544e-02      304.6361738 
 1.427752516e-02      304.6532529 
 1.441328141e-02      304.6701866 
 1.454948770e-02      304.6874337 
 1.468603169e-02      304.7028935 
 1.482154176e-02      304.7164836 
 1.495582184e-02      304.7310977 
 1.508895726e-02      304.7461653 
 1.522113441e-02      304.7601836 
 1.535307949e-02      304.7771246 
 1.548717317e-02      304.7968021 
 1.562378753e-02      304.8177714 
 1.576283990e-02      304.8388687 
 1.590412764e-02      304.8591563 
 1.604761950e-02      304.8789706 
 1.619286136e-02      304.8979222 
 1.633981851e-02      304.9175497 
 1.648855853e-02      304.9388912 
 1.663899231e-02      304.9618265 
 1.679037581e-02      304.9832696 
 1.694274919e-02      305.0013717 
 1.709648430e-02      305.0177561 
 1.725220600e-02      305.0353024 
 1.741048109e-02      305.0542749 
 1.757010048e-02      305.0733967 
 1.773100253e-02      305.0921187 
 1.789302953e-02       305.109553 
 1.805579404e-02      305.1245298 
 1.821937989e-02      305.1377196 
 1.838341445e-02      305.1490322 
 1.854809886e-02      305.1596405 
 1.871389039e-02      305.1702532 
 1.888132628e-02      305.1840732 
 1.905080505e-02      305.2064117 
 1.922246895e-02      305.2351569 
 1.939611661e-02      305.2679086 
 1.957144308e-02      305.3040542 
 1.974847909e-02      305.3405816 
 1.992620478e-02      305.3799635 
 2.010497068e-02      305.4198411 
 2.028498868e-02       305.459875 
 2.046628285e-02      305.5046853 
 2.064919794e-02       305.554172 
 2.083358984e-02        305.60676 
 2.101950026e-02      305.6617031 
 2.120720027e-02      305.7174046 
 2.139631091e-02      305.7783592 
 2.158676553e-02      305.8392193 
 2.177865616e-02      305.8999102 
 2.197201654e-02      305.9588165 
 2.216708079e-02      306.0176217 
 2.236316620e-02      306.0779604 
 2.256027346e-02      306.1377868 
 2.275833366e-02      306.1963135 
 2.295709011e-02      306.2555603 
 2.315742926e-02      306.3143014 
 2.335866189e-02      306.3737209 
 2.356104297e-02      306.4326702 
 2.376463392e-02      306.4933946 
 2.396957783e-02      306.5568447 
 2.417700504e-02      306.6184021 
 2.438616596e-02      306.6789478 
 2.459693799e-02       306.737451 
 2.480969085e-02      306.7927327 
 2.502456451e-02      306.8449919 
 2.524141952e-02      306.8948952 
 2.546034699e-02      306.9443346 
 2.568129572e-02      306.9932199 
 2.590407930e-02       307.041395 
 2.612895634e-02      307.0901997 
 2.635468113e-02      307.1366434 
 2.658151765e-02      307.1828764 
 2.680987723e-02      307.2295667 
 2.704014873e-02      307.2780701 
 2.727257910e-02      307.3278111 
 2.750678797e-02      307.3755644 
 2.774276545e-02      307.4228001 
 2.798069972e-02      307.4701079 
 2.822111672e-02      307.5169571 
 2.846370368e-02      307.5653271 
 2.870801446e-02      307.6131406 
 2.895407272e-02      307.6604057 
 2.920195860e-02      307.7063288 
 2.945191294e-02      307.7483719 
 2.970373340e-02      307.7880248 
 2.995772573e-02      307.8248888 
 3.021406722e-02      307.8617959 
 3.047303976e-02      307.9014167 
 3.073505419e-02      307.9426946 
 3.100085349e-02      307.9850412 
 3.126969158e-02      308.0283298 
 3.154158237e-02      308.0727532 
 3.181647828e-02      308.1175817 
 3.209458229e-02      308.1600271 
 3.237545823e-02      308.2042787 
 3.265870264e-02      308.2490526 
 3.294453509e-02      308.2925923 
 3.323290778e-02      308.3341551 
 3.352319775e-02      308.3735541 
 3.381586319e-02      308.4121247 
 3.411098046e-02      308.4455238 
 3.440824452e-02      308.4759732 
 3.470766853e-02      308.5050789 
 3.500952909e-02      308.5314077 
 3.531451906e-02      308.5496639 
 3.562225690e-02      308.5685349 
 3.593249153e-02      308.5889257 
 3.624493655e-02      308.6099812 
 3.655957852e-02      308.6299219 
 3.687588869e-02      308.6523628 
 3.719454215e-02      308.6771236 
 3.751569976e-02      308.7037258 
 3.783925926e-02      308.7319385 