Reanalysis-NOAA     ! 30 CHARACTER ALPHANUM RUN DESCRIPTION
(p)adcirc 53.xx        ! 24 CHARACTER ALPANUMERIC RUN IDENTIFICATION
1                     ! NFOVER - NONFATAL ERROR OVERRIDE OPTION
1                     ! NABOUT - ABREVIATED OUTPUT OPTION PARAMETER
-120                 ! NSCREEN - UNIT 6 OUTPUT OPTION PARAMETER
<IHOT>                ! IHOT - HOT START PARAMETER
2                     ! ICS - COORDINATE SYSTEM SELECTION PARAMETER
0                ! IM - MODEL SELECTION PARAMETER 
1                     ! NOLIBF - BOTTOM FRICTION TERM SELECTION PARAMETER
0                     ! NOLIFA - FINITE AMPLITUDE TERM SELECTION PARAMETER
0                     ! NOLICA - SPATIAL DERIVATIVE CONVECTIVE SELECTION PARAMETER
0                     ! NOLICAT - TIME DERIVATIVE CONVECTIVE TERM SELECTION PARAMETER
4                     ! NWP - VARIABLE BOTTOM FRICTION AND LATERAL VISCOSITY OPTION PARAMETER
sea_surface_height_above_geoid
mannings_n_at_sea_floor
primitive_weighting_in_continuity_equation
average_horizontal_eddy_viscosity_in_sea_water_wrt_depth
1                     ! NCOR - VARIABLE CORIOLIS IN SPACE OPTION PARAMETER
1                     ! NTIP - TIDAL POTENTIAL OPTION PARAMETER
<NWS>                 ! NWS - WIND STRESS AND BAROMETRIC PRESSURE OPTION PARAMETER
1                     ! NRAMP - RAMP FUNCTION OPTION
9.81                  ! G - ACCELERATION DUE TO GRAVITY - DETERMINES UNITS
-3.0                  ! TAU0 - WEIGHTING FACTOR IN GWCE
<DT>                  ! DT - TIME STEP (IN SECONDS)
0.00                  ! STATIM - STARTING TIME (IN DAYS)
0.00                  ! REFTIM - REFERENCE TIME (IN DAYS)
<WTIMINC>             ! Wind/RadStress Time Increment(s)
<RNDAY>               ! RNDAY - TOTAL LENGTH OF SIMULATION (IN DAYS)
<DRAMP>               ! DRAMP - DURATION OF RAMP FUNCTION (IN DAYS)
0.33 0.34 0.33        ! TIME WEIGHTING FACTORS FOR THE GWCE EQUATION
0.10 0 0 0.01         ! H0, NODEDRYMIN, NODEWETMIN, VELMIN
265.5 29.0            ! SLAM0,SFEA0 - CENTER OF CPP PROJECTION (NOT USED IF ICS=1, NTIP=0, NCOR=0)
0.002                 ! FFACTOR
20.0                  ! ESL - LATERAL EDDY VISCOSITY COEFFICIENT; IGNORED IF NWP =1
0.0                   ! CORI - CORIOLIS PARAMETER - IGNORED IF NCOR = 1
<TidalPotentialBlock>
<TidalElevationBlock>
M2
0.3893  -118.560
0.3893  -118.560
0.4103  -122.997
0.4294  -134.472
0.4249  -138.824
0.4113  -140.199
0.4036  -140.708
0.3951  -141.097
0.3759  -141.901
0.3582  -142.440
0.3416  -142.858
0.3289  -143.113
0.3176  -143.260
0.3064  -143.333
0.2955  -143.338
0.2856  -143.291
0.2749  -143.197
0.2554  -142.779
0.2417  -142.349
0.2302  -141.938
0.2174  -141.554
0.2033  -141.154
0.1919  -140.736
0.1793  -140.328
0.1667  -139.856
0.1564  -138.902
0.1488  -136.897
0.1407  -135.127
0.1315  -133.553
0.1222  -131.676
0.1125  -129.367
0.1024  -126.499
0.0927  -122.969
0.0834  -118.442
0.0748  -112.579
0.0675  -105.233
0.0619   -96.294
0.0577   -80.623
0.0592   -62.908
0.0688   -44.410
0.0827   -32.306
0.0981   -24.937
0.1160   -19.587
0.1335   -16.068
0.1488   -13.854
0.1635   -12.208
0.1804   -10.705
0.1964    -9.568
0.2121    -8.672
0.2269    -8.030
0.2408    -7.556
0.2543    -7.155
0.2672    -6.831
0.2798    -6.570
0.2930    -6.368
0.3057    -6.250
0.3170    -6.191
0.3278    -6.197
0.3367    -6.274
0.3451    -6.425
0.3534    -6.648
0.3610    -6.966
0.3690    -7.424
0.3763    -7.967
0.3822    -8.544
0.3884    -9.200
0.3916    -9.563
0.3947    -9.957
0.3979   -10.378
0.4010   -10.829
0.4045   -11.343
0.4080   -11.890
0.4116   -12.470
0.4153   -13.084
0.4191   -13.741
0.4228   -14.416
0.4273   -15.159
0.4305   -15.776
0.4471   -15.920
0.4693   -14.766
0.5017   -12.514
0.5134   -11.753
0.5237   -11.167
0.5293   -11.483
0.5339   -11.685
0.5379   -11.842
0.5412   -12.017
0.5423   -12.216
0.5433   -12.415
0.5432   -12.667
0.5431   -12.919
0.5422   -13.150
0.5410   -13.374
0.5395   -13.609
0.5377   -13.856
0.5358   -14.124
0.5335   -14.462
0.5312   -14.802
0.5280   -15.219
0.5248   -15.643
0.4791   -15.944
0.4344   -16.154
0.3892   -16.411
S2
0.1400   -86.845
0.1400   -86.845
0.1424   -92.568
0.1451  -107.086
0.1435  -112.786
0.1383  -114.945
0.1355  -115.820
0.1325  -116.521
0.1259  -117.950
0.1200  -118.918
0.1143  -119.621
0.1100  -120.027
0.1061  -120.256
0.1022  -120.369
0.0985  -120.374
0.0951  -120.304
0.0914  -120.174
0.0849  -119.655
0.0804  -119.139
0.0768  -118.633
0.0729  -118.150
0.0687  -117.695
0.0653  -117.339
0.0617  -117.097
0.0581  -116.934
0.0548  -116.255
0.0511  -114.467
0.0481  -113.271
0.0454  -112.540
0.0427  -111.688
0.0398  -110.709
0.0369  -109.491
0.0340  -107.940
0.0312  -105.982
0.0284  -103.493
0.0259  -100.359
0.0235   -96.425
0.0205   -88.794
0.0180   -77.601
0.0163   -59.262
0.0166   -40.254
0.0184   -24.971
0.0217   -12.594
0.0255    -4.220
0.0291     1.095
0.0328     5.090
0.0373     8.818
0.0417    11.735
0.0461    14.125
0.0504    15.966
0.0544    17.402
0.0584    18.620
0.0622    19.613
0.0658    20.430
0.0697    21.119
0.0733    21.627
0.0766    21.987
0.0797    22.231
0.0822    22.349
0.0846    22.363
0.0869    22.313
0.0890    22.162
0.0911    21.900
0.0931    21.577
0.0946    21.248
0.0962    20.849
0.0969    20.625
0.0977    20.385
0.0984    20.130
0.0991    19.863
0.0999    19.563
0.1007    19.247
0.1015    18.917
0.1023    18.571
0.1031    18.208
0.1038    17.846
0.1040    17.154
0.1041    16.498
0.1081    16.584
0.1135    17.962
0.1214    20.778
0.1243    21.871
0.1271    22.771
0.1288    22.772
0.1303    22.968
0.1317    23.224
0.1330    23.470
0.1334    23.504
0.1338    23.537
0.1339    23.535
0.1340    23.532
0.1339    23.607
0.1337    23.711
0.1335    23.813
0.1331    23.914
0.1327    23.993
0.1322    23.990
0.1316    23.987
0.1307    23.958
0.1297    23.927
0.1185    24.082
0.1076    24.275
0.0965    24.512
N2
0.0985  -132.831
0.0985  -132.831
0.0999  -137.546
0.0994  -150.098
0.0970  -155.076
0.0932  -156.771
0.0912  -157.419
0.0892  -157.900
0.0847  -158.841
0.0807  -159.426
0.0769  -159.817
0.0741  -160.037
0.0715  -160.158
0.0690  -160.217
0.0666  -160.232
0.0644  -160.230
0.0620  -160.189
0.0577  -159.856
0.0547  -159.451
0.0522  -159.028
0.0495  -158.614
0.0465  -158.168
0.0441  -157.654
0.0415  -156.943
0.0388  -156.023
0.0364  -154.908
0.0341  -153.413
0.0321  -151.726
0.0301  -149.962
0.0281  -147.901
0.0260  -145.370
0.0239  -142.256
0.0219  -138.519
0.0200  -133.922
0.0183  -128.223
0.0168  -121.434
0.0157  -113.605
0.0148  -100.501
0.0149   -85.642
0.0165   -68.878
0.0190   -56.753
0.0220   -48.830
0.0256   -42.866
0.0293   -38.861
0.0326   -36.277
0.0359   -34.283
0.0397   -32.361
0.0435   -30.816
0.0472   -29.550
0.0507   -28.621
0.0539   -27.960
0.0570   -27.456
0.0598   -27.094
0.0625   -26.841
0.0653   -26.676
0.0680   -26.599
0.0704   -26.562
0.0727   -26.563
0.0746   -26.611
0.0764   -26.710
0.0783   -26.863
0.0801   -27.100
0.0820   -27.465
0.0839   -27.927
0.0854   -28.448
0.0869   -29.066
0.0877   -29.419
0.0885   -29.808
0.0893   -30.229
0.0901   -30.681
0.0909   -31.198
0.0918   -31.748
0.0926   -32.326
0.0935   -32.929
0.0944   -33.564
0.0953   -34.200
0.0964   -34.955
0.0969   -35.674
0.0995   -36.119
0.1033   -35.346
0.1091   -33.556
0.1113   -32.900
0.1133   -32.387
0.1145   -32.668
0.1156   -32.824
0.1166   -32.928
0.1175   -33.045
0.1178   -33.218
0.1182   -33.390
0.1183   -33.634
0.1185   -33.880
0.1184   -34.114
0.1183   -34.345
0.1181   -34.590
0.1179   -34.851
0.1176   -35.133
0.1172   -35.489
0.1168   -35.847
0.1162   -36.288
0.1156   -36.735
0.1056   -37.058
0.0958   -37.285
0.0859   -37.564
K2
0.0422   -90.605
0.0422   -90.605
0.0425   -96.389
0.0423  -111.248
0.0415  -117.190
0.0398  -119.434
0.0389  -120.331
0.0380  -121.016
0.0360  -122.356
0.0341  -123.226
0.0325  -123.812
0.0312  -124.142
0.0301  -124.326
0.0290  -124.418
0.0279  -124.427
0.0270  -124.399
0.0260  -124.314
0.0242  -123.856
0.0229  -123.371
0.0219  -122.919
0.0208  -122.503
0.0196  -122.138
0.0187  -121.858
0.0177  -121.664
0.0167  -121.565
0.0158  -121.349
0.0148  -120.761
0.0140  -119.895
0.0133  -119.019
0.0125  -118.020
0.0117  -116.888
0.0109  -115.536
0.0101  -113.907
0.0093  -111.951
0.0085  -109.565
0.0077  -106.652
0.0070  -103.070
0.0060   -96.169
0.0051   -85.765
0.0044   -67.182
0.0042   -45.347
0.0046   -26.371
0.0055   -11.057
0.0067    -1.235
0.0078     4.584
0.0089     8.633
0.0103    12.068
0.0117    14.475
0.0130    16.240
0.0143    17.450
0.0155    18.297
0.0167    18.963
0.0177    19.480
0.0188    19.893
0.0198    20.232
0.0208    20.476
0.0217    20.659
0.0225    20.785
0.0231    20.842
0.0237    20.833
0.0243    20.786
0.0249    20.663
0.0254    20.449
0.0259    20.184
0.0263    19.907
0.0267    19.566
0.0269    19.373
0.0271    19.162
0.0273    18.937
0.0276    18.698
0.0278    18.422
0.0280    18.127
0.0283    17.808
0.0285    17.464
0.0287    17.087
0.0290    16.694
0.0293    15.305
0.0295    14.062
0.0303    14.592
0.0314    16.555
0.0332    20.091
0.0340    21.354
0.0347    22.380
0.0352    22.345
0.0357    22.443
0.0362    22.568
0.0367    22.655
0.0369    22.579
0.0371    22.505
0.0372    22.373
0.0373    22.241
0.0374    22.151
0.0375    22.077
0.0375    21.998
0.0375    21.914
0.0375    21.814
0.0374    21.654
0.0374    21.494
0.0372    21.298
0.0371    21.100
0.0339    21.034
0.0309    21.023
0.0278    21.011
K1
0.0952  -107.989
0.0952  -107.989
0.0967  -110.444
0.0973  -117.764
0.0966  -120.329
0.0950  -120.854
0.0943  -121.029
0.0935  -121.156
0.0918  -121.419
0.0905  -121.575
0.0893  -121.678
0.0885  -121.769
0.0878  -121.859
0.0872  -121.950
0.0868  -122.044
0.0864  -122.156
0.0860  -122.313
0.0852  -122.728
0.0844  -123.106
0.0835  -123.449
0.0827  -123.807
0.0818  -124.200
0.0811  -124.594
0.0802  -125.096
0.0793  -125.681
0.0785  -126.075
0.0776  -125.996
0.0766  -126.283
0.0756  -126.868
0.0747  -127.482
0.0738  -128.142
0.0729  -128.833
0.0721  -129.531
0.0712  -130.255
0.0704  -131.009
0.0696  -131.781
0.0688  -132.567
0.0677  -133.764
0.0664  -135.149
0.0648  -137.023
0.0633  -138.870
0.0620  -140.761
0.0605  -142.989
0.0591  -145.287
0.0580  -147.423
0.0569  -149.608
0.0559  -152.302
0.0549  -155.045
0.0542  -157.897
0.0536  -160.757
0.0531  -163.524
0.0529  -166.262
0.0528  -168.869
0.0528  -171.409
0.0530  -174.075
0.0533  -176.626
0.0536  -178.855
0.0540   179.035
0.0545   177.279
0.0549   175.627
0.0555   173.990
0.0561   172.484
0.0567   170.962
0.0574   169.647
0.0581   168.679
0.0587   167.897
0.0591   167.588
0.0594   167.339
0.0598   167.157
0.0601   167.045
0.0605   167.003
0.0610   167.038
0.0614   167.146
0.0619   167.302
0.0625   167.478
0.0630   167.619
0.0660   166.868
0.0692   165.786
0.0681   160.537
0.0606   154.202
0.0455   144.482
0.0397   137.229
0.0356   128.296
0.0362   120.424
0.0364   109.649
0.0368    99.626
0.0372    91.065
0.0375    87.741
0.0380    84.492
0.0390    81.113
0.0401    77.908
0.0420    73.678
0.0444    69.424
0.0466    65.295
0.0486    61.169
0.0506    57.394
0.0519    53.901
0.0535    50.599
0.0553    46.752
0.0573    43.133
0.0537    39.358
0.0497    36.179
0.0457    32.443
O1
0.0775  -114.259
0.0775  -114.259
0.0788  -117.560
0.0802  -126.067
0.0801  -129.072
0.0791  -129.911
0.0786  -130.244
0.0780  -130.518
0.0768  -131.092
0.0758  -131.490
0.0749  -131.766
0.0742  -131.939
0.0735  -132.055
0.0729  -132.133
0.0724  -132.186
0.0719  -132.232
0.0714  -132.273
0.0706  -132.394
0.0698  -132.553
0.0691  -132.735
0.0683  -132.931
0.0676  -133.148
0.0670  -133.379
0.0664  -133.716
0.0659  -134.124
0.0656  -134.416
0.0655  -134.507
0.0651  -134.751
0.0645  -135.106
0.0640  -135.474
0.0634  -135.873
0.0629  -136.288
0.0624  -136.708
0.0619  -137.143
0.0614  -137.596
0.0608  -138.060
0.0603  -138.531
0.0596  -139.245
0.0587  -140.069
0.0576  -141.177
0.0566  -142.262
0.0556  -143.374
0.0544  -144.688
0.0533  -146.048
0.0524  -147.322
0.0515  -148.638
0.0505  -150.282
0.0495  -151.987
0.0486  -153.803
0.0477  -155.677
0.0470  -157.549
0.0464  -159.466
0.0459  -161.362
0.0454  -163.282
0.0451  -165.385
0.0448  -167.489
0.0447  -169.407
0.0446  -171.299
0.0446  -172.938
0.0447  -174.542
0.0449  -176.192
0.0452  -177.780
0.0456  -179.465
0.0462   178.989
0.0467   177.773
0.0474   176.673
0.0478   176.175
0.0482   175.719
0.0486   175.306
0.0491   174.932
0.0496   174.573
0.0501   174.240
0.0507   173.920
0.0513   173.591
0.0519   173.233
0.0524   172.868
0.0539   172.968
0.0552   172.606
0.0504   168.552
0.0409   167.752
0.0264   176.699
0.0202  -176.305
0.0148  -165.864
0.0105  -163.888
0.0054  -142.558
0.0045   -76.852
0.0080   -47.980
0.0097   -42.908
0.0114   -39.337
0.0133   -35.362
0.0152   -32.346
0.0179   -28.824
0.0210   -25.912
0.0241   -24.640
0.0272   -24.546
0.0302   -24.730
0.0327   -25.753
0.0353   -26.629
0.0382   -27.829
0.0411   -28.876
0.0401   -30.656
0.0382   -32.275
0.0364   -34.060
P1
0.0278   -97.583
0.0278   -97.583
0.0285  -102.073
0.0297  -112.570
0.0300  -116.252
0.0297  -117.482
0.0295  -118.006
0.0293  -118.466
0.0289  -119.441
0.0286  -120.152
0.0283  -120.668
0.0280  -120.995
0.0278  -121.228
0.0276  -121.410
0.0275  -121.553
0.0273  -121.682
0.0272  -121.835
0.0269  -122.213
0.0266  -122.562
0.0264  -122.890
0.0261  -123.232
0.0258  -123.609
0.0255  -123.997
0.0253  -124.498
0.0250  -125.073
0.0248  -125.493
0.0248  -125.539
0.0245  -125.853
0.0242  -126.397
0.0239  -126.969
0.0237  -127.585
0.0234  -128.228
0.0231  -128.880
0.0229  -129.554
0.0226  -130.259
0.0223  -130.980
0.0221  -131.715
0.0217  -132.834
0.0213  -134.132
0.0208  -135.890
0.0203  -137.626
0.0199  -139.409
0.0194  -141.516
0.0190  -143.698
0.0186  -145.736
0.0182  -147.829
0.0179  -150.422
0.0175  -153.077
0.0173  -155.852
0.0171  -158.651
0.0169  -161.372
0.0168  -164.078
0.0168  -166.667
0.0168  -169.199
0.0169  -171.868
0.0170  -174.425
0.0171  -176.660
0.0173  -178.776
0.0174   179.462
0.0176   177.801
0.0179   176.152
0.0181   174.628
0.0184   173.077
0.0187   171.718
0.0190   170.697
0.0193   169.833
0.0195   169.468
0.0196   169.154
0.0198   168.897
0.0199   168.696
0.0201   168.548
0.0202   168.465
0.0204   168.445
0.0206   168.479
0.0207   168.550
0.0208   168.635
0.0221   167.373
0.0234   165.890
0.0230   160.869
0.0206   154.478
0.0159   144.494
0.0141   137.741
0.0127   129.712
0.0128   122.983
0.0126   113.925
0.0123   105.350
0.0121    97.894
0.0120    95.043
0.0120    92.187
0.0122    89.128
0.0124    86.156
0.0128    81.927
0.0132    77.451
0.0136    73.066
0.0139    68.661
0.0143    64.550
0.0145    60.841
0.0148    57.268
0.0152    53.048
0.0156    49.003
0.0145    44.860
0.0132    41.342
0.0121    37.125
Q1
0.0145  -130.267
0.0145  -130.267
0.0147  -133.450
0.0149  -141.831
0.0148  -144.871
0.0146  -145.738
0.0145  -146.085
0.0144  -146.372
0.0142  -146.970
0.0140  -147.379
0.0138  -147.646
0.0137  -147.801
0.0136  -147.881
0.0135  -147.906
0.0134  -147.913
0.0133  -147.935
0.0132  -147.912
0.0131  -147.823
0.0129  -147.826
0.0128  -147.945
0.0127  -148.053
0.0126  -148.163
0.0125  -148.331
0.0124  -148.574
0.0123  -148.900
0.0124  -149.774
0.0127  -151.755
0.0127  -152.694
0.0127  -153.022
0.0126  -153.354
0.0125  -153.702
0.0124  -154.060
0.0124  -154.419
0.0123  -154.785
0.0122  -155.161
0.0121  -155.541
0.0120  -155.926
0.0119  -156.504
0.0118  -157.168
0.0116  -158.052
0.0115  -158.904
0.0113  -159.778
0.0112  -160.807
0.0110  -161.867
0.0109  -162.854
0.0108  -163.866
0.0106  -165.121
0.0105  -166.412
0.0103  -167.777
0.0102  -169.179
0.0101  -170.576
0.0100  -172.004
0.0099  -173.418
0.0098  -174.855
0.0097  -176.442
0.0096  -178.048
0.0096  -179.535
0.0096   178.972
0.0096   177.654
0.0096   176.334
0.0096   174.941
0.0096   173.559
0.0096   172.033
0.0097   170.555
0.0098   169.316
0.0099   168.107
0.0099   167.521
0.0100   166.953
0.0101   166.407
0.0101   165.879
0.0102   165.337
0.0103   164.811
0.0103   164.297
0.0104   163.795
0.0105   163.299
0.0106   162.852
0.0103   160.910
0.0101   158.696
0.0092   157.580
0.0079   159.950
0.0062   169.929
0.0055   175.656
0.0048  -177.929
0.0042  -175.752
0.0035  -168.542
0.0030  -157.850
0.0028  -146.010
0.0027  -141.540
0.0027  -136.905
0.0026  -131.980
0.0026  -126.853
0.0026  -118.430
0.0026  -108.909
0.0028  -100.650
0.0030   -94.222
0.0033   -89.326
0.0036   -86.792
0.0039   -84.627
0.0042   -82.816
0.0046   -81.289
0.0046   -81.204
0.0044   -81.530
0.0043   -81.884
MM
0.0083    -6.564
0.0083    -6.564
0.0084    -6.684
0.0084    -6.876
0.0084    -6.999
0.0084    -7.093
0.0084    -7.135
0.0083    -7.171
0.0083    -7.236
0.0083    -7.288
0.0083    -7.333
0.0083    -7.371
0.0083    -7.408
0.0082    -7.442
0.0082    -7.474
0.0082    -7.505
0.0082    -7.535
0.0081    -7.596
0.0081    -7.645
0.0080    -7.692
0.0079    -7.753
0.0079    -7.822
0.0078    -7.890
0.0078    -7.974
0.0077    -8.073
0.0076    -8.172
0.0076    -8.255
0.0075    -8.325
0.0074    -8.362
0.0073    -8.405
0.0073    -8.485
0.0072    -8.579
0.0071    -8.693
0.0070    -8.767
0.0069    -8.798
0.0068    -8.877
0.0067    -8.945
0.0065    -9.002
0.0062    -9.239
0.0060    -9.732
0.0058    -9.919
0.0056   -10.203
0.0054   -10.632
0.0051   -11.136
0.0049   -11.693
0.0047   -12.304
0.0044   -13.034
0.0042   -13.685
0.0039   -14.221
0.0036   -14.943
0.0033   -15.790
0.0030   -16.156
0.0028   -16.215
0.0025   -16.154
0.0022   -16.837
0.0018   -18.744
0.0015   -22.173
0.0012   -28.984
0.0010   -40.261
0.0008   -56.595
0.0008   -83.351
0.0009  -104.804
0.0011  -121.264
0.0014  -130.797
0.0017  -133.408
0.0020  -137.916
0.0021  -140.110
0.0022  -141.655
0.0024  -142.496
0.0025  -142.941
0.0026  -143.227
0.0028  -143.414
0.0029  -143.609
0.0030  -143.802
0.0031  -143.877
0.0031  -143.775
0.0032  -142.451
0.0032  -141.817
0.0033  -141.875
0.0033  -141.999
0.0034  -142.036
0.0034  -142.128
0.0034  -142.246
0.0034  -142.559
0.0035  -142.924
0.0035  -143.289
0.0036  -143.658
0.0036  -143.881
0.0036  -144.101
0.0037  -144.325
0.0037  -144.545
0.0037  -144.764
0.0038  -144.980
0.0038  -145.196
0.0038  -145.415
0.0039  -145.632
0.0039  -145.857
0.0039  -146.077
0.0040  -146.302
0.0040  -146.523
0.0037  -146.704
0.0034  -146.840
0.0031  -147.002
MF
0.0168    -1.564
0.0168    -1.564
0.0171    -1.789
0.0171    -2.137
0.0171    -2.343
0.0171    -2.490
0.0171    -2.551
0.0171    -2.598
0.0171    -2.678
0.0170    -2.737
0.0170    -2.782
0.0170    -2.818
0.0169    -2.851
0.0169    -2.880
0.0168    -2.910
0.0168    -2.941
0.0167    -2.971
0.0166    -3.004
0.0165    -3.004
0.0164    -3.023
0.0162    -3.063
0.0161    -3.103
0.0160    -3.162
0.0159    -3.251
0.0158    -3.341
0.0157    -3.430
0.0156    -3.508
0.0154    -3.571
0.0153    -3.629
0.0151    -3.687
0.0149    -3.760
0.0148    -3.872
0.0146    -4.050
0.0144    -4.194
0.0142    -4.286
0.0140    -4.443
0.0138    -4.668
0.0135    -5.029
0.0131    -5.502
0.0127    -5.815
0.0123    -5.460
0.0118    -5.298
0.0113    -5.178
0.0108    -5.086
0.0103    -5.071
0.0098    -5.102
0.0092    -5.168
0.0086    -5.304
0.0081    -5.574
0.0075    -6.296
0.0069    -7.394
0.0063    -8.465
0.0057    -9.395
0.0051   -10.204
0.0044   -11.030
0.0038   -12.073
0.0034   -13.834
0.0030   -18.088
0.0027   -24.123
0.0023   -33.288
0.0021   -44.724
0.0019   -58.155
0.0019   -74.331
0.0020   -90.093
0.0023   -96.715
0.0026  -107.390
0.0027  -112.221
0.0029  -116.398
0.0031  -119.625
0.0032  -122.177
0.0034  -124.385
0.0035  -126.207
0.0037  -127.737
0.0038  -129.050
0.0039  -130.327
0.0040  -132.075
0.0039  -133.403
0.0040  -133.228
0.0041  -134.577
0.0042  -135.284
0.0044  -135.909
0.0045  -136.169
0.0045  -136.426
0.0046  -136.810
0.0047  -137.160
0.0048  -137.466
0.0048  -137.745
0.0049  -137.894
0.0049  -138.040
0.0050  -138.136
0.0050  -138.231
0.0050  -138.266
0.0051  -138.279
0.0051  -138.282
0.0051  -138.272
0.0052  -138.258
0.0052  -138.232
0.0052  -138.206
0.0053  -138.149
0.0053  -138.092
0.0049  -138.019
0.0045  -137.954
0.0041  -137.876
 100.0                          ! ANGINN : INNER ANGLE THRESHOLD
<OUTPUTFORMAT> <TOUTSE> <TOUTFE> <NSPOOLE>    ! NOUTE,TOUTSE,TOUTFE,NSPOOLE:ELEV STATION OUTPUT INFO (UNIT  61)
  50                  ! TOTAL NUMBER OF ELEVATION RECORDING STATIONS     
 -66.9850   44.9033   ! Eastport Passamaquoddy Bay, ME  	(NOS  Station ID 8410140)	 
 -67.2966   44.6416   ! Cutler Naval Base, ME			(NOS  Station ID 8411250)	 
 -68.2000   44.4000   ! Bar Harbor, ME  			(NOS  Station ID 8413320)	 
 -70.2466   43.6566   ! Portland, ME				(NOS  Station ID 8418150)	 
 -71.0516   42.3550   ! Boston, MA				(NOS  Station ID 8443970)	 
 -70.6700   41.5133   ! Woods Hole, MA  			(NOS  Station ID 8447930)	 
 -70.0950   41.2866   ! Nantucket Island, MA			(NOS  Station ID 8449130)	 
 -71.6133   41.1583   ! Block Island, RI			(NOS  Station ID 8459681)	 
 -71.9666   41.0500   ! Montauk, NY				(NOS  Station ID 8510560)	 
 -74.0116   40.4683   ! Sandy Hook, NJ  			(NOS  Station ID 8531680)	 
 -74.4183   39.3516   ! Atlantic City, NJ			(NOS  Station ID 8534720)	 
 -74.9600   38.9683   ! Cape May Ferry Terminal, NJ		(NOS  Station ID 8536110)	 
 -75.1200   38.7816   ! Lewes, DE				(NOS  Station ID 8557380)	 
 -75.9883   37.1666   ! Kiptopeke, VA				(NOS  Station ID 8632200)	 
 -76.2900   37.6150   ! Windmill Pt., VA			(NOS  Station ID 8636580)	 
 -76.5000   37.2466   ! Gloucester Pt., VA			(NOS  Station ID 8637624)	 
 -76.1133   36.9666   ! Chesapeake Bay Bridge Tunnel, VA	(NOS  Station ID 8638863)	 
 -75.7466   36.1833   ! Duck Pier, NC				(NOS  Station ID 8651370)	 
 -75.5483   35.7950   ! Oregon Inlet Marina, NC 		(NOS  Station ID 8652587)  
 -75.6350   35.2233   ! Cape Hatteras Fishing Pier, NC  	(NOS  Station ID 8654400)	 
 -76.6700   34.7200   ! Beaufort, NC				(NOS  Station ID 8656483)	 
 -77.9533   34.2267   ! Wilmington, NC  			(NOS  Station ID 8658120)  
 -77.7867   34.2133   ! Wrightsville Beach, NC  		(NOS  Station ID 8658163)  
 -78.0183   33.9150   ! Southport, NC				(NOS  Station ID 8659084)  
 -78.5067   33.8650   ! Sunset Beach, NC			(NOS  Station ID 8659897)  
 -77.0619   35.5425   ! Pamlico River at Washington, NC 	(USGS Station ID 02084472)
 -76.7231   35.9152   ! Roanoke River at NC45 near Westover, NC (USGS Station ID 0208114150) 
 -78.9183   33.6550   ! Springmaid Pier, SC			(NOS  Station ID 8661070)      
 -79.9250   32.7816   ! Charleston, SC  			(NOS  Station ID 8665530)      
 -80.9016   32.0333   ! Fort Pulaski, GA			(NOS  Station ID 8670870)      
 -81.4300   30.3966   ! Mayport (Bar Pilots Dock), FL		(NOS  Station ID 8720218)      
 -81.2633   29.8566   ! St. Augustine Beach, FL 		(NOS  Station ID 8720587)      
 -80.5933   28.4150   ! Trident Pier, FL			(NOS  Station ID 8721604)      
 -80.1616   25.7316   ! Virginia Key, FL			(NOS  Station ID 8723214)      
 -81.1050   24.7116   ! Vaca Key, FL				(NOS  Station ID 8723970)      
 -81.8083   24.5533   ! Key West, FL				(NOS  Station ID 8724580)      
 -81.8066   26.1300   ! Naples, FL				(NOS  Station ID 8725110)      
 -82.8316   27.9766   ! Clearwater Beach, FL			(NOS  Station ID 8726724)      
 -83.0316   29.1350   ! Cedar Key, FL				(NOS  Station ID 8727520)      
 -84.9816   29.7266   ! Apalachicola, FL			(NOS  Station ID 8728690)      
 -85.8800   30.2133   ! Panama City Beach, FL			(NOS  Station ID 8729210)      
 -87.2116   30.4033   ! Pensacola, FL				(NOS  Station ID 8729840)      
 -89.3666   30.2816   ! Waveland, MS				(NOS  Station ID 8747766)      
 -89.1400   28.9900   ! South Pass, LA  			(NOS  Station ID 8760551)      
 -89.9566   29.2633   ! Grand Isle, LA  			(NOS  Station ID 8761724)      
 -93.8700   29.7316   ! Sabine Pass North, TX			(NOS  Station ID 8770570)      
 -94.7883   29.2850   ! Galveston Pleasure Pier, TX		(NOS  Station ID 8771510)      
 -95.3083   28.9483   ! Freeport, TX				(NOS  Station ID 8772440)      
 -97.2166   27.5800   ! Corpus Christi, TX			(NOS  Station ID 8775870)      
 -97.2150   26.0600   ! Port Isabel, Laguna Madre, TX		(NOS  Station ID 8779770)      
<OUTPUTFORMAT> <TOUTSE> <TOUTFE> <NSPOOLE>    ! NOUTV,TOUTSV,TOUTFV,NSPOOLV:VEL STATION OUTPUT INFO (UNIT  62)
 0                  ! NSTAV - NUMBER OF ELEVATION RECORDING STATIONS, FOLLOWED BY LOCATIONS ON PROCEEDING LINES
<OUTPUTFORMAT> <TOUTSE> <TOUTFE> <NSPOOLE>    ! NOUTM,TOUTSM,TOUTFM,NSPOOLM: MET STATION OUTPUT INFO (UNIT  71,72)
 0                  ! NSTAM - NUMBER OF MET RECORDING STATIONS
<OUTPUTFORMAT> <TOUTSE> <TOUTFE> <NSPOOLGE>        ! NOUTGE,TOUTSGE,TOUTFGE,NSPOOLGE : GLOBAL ELEVATION OUTPUT INFO (UNIT  63)
<OUTPUTFORMAT> <TOUTSE> <TOUTFE> <NSPOOLGE>        ! NOUTGV,TOUTSGV,TOUTFGV,NSPOOLGV : GLOBAL VELOCITY  OUTPUT INFO (UNIT  64)   
<OUTPUTFORMAT> <TOUTSE> <TOUTFE> <NSPOOLGE>        ! NOUTGM,TOUTSGM,TOUTFGM,NSPOOLGM : GLOBAL MET  OUTPUT INFO (UNIT  73,74)    
 0                    ! NHARFR - NUMBER OF CONSTITUENTS TO BE INCLUDED IN THE HARMONIC ANALYSIS
 40.0  50.0  5  0.0   ! THAS,THAF,NHAINC,FMV - HARMONIC ANALYSIS PARAMETERS    
 0 0 0 0              ! NHASE,NHASV,NHAGE,NHAGV - CONTROL HARMONIC ANALYSIS AND OUTPUT TO UNITS 51,52,53,54
 0 21600              ! NHSTAR,NHSINC  - HOT START FILE GENERATION PARAMETERS 
 1  0  1.E-10  25 0    ! ITITER, ISLDIA, CONVCR, ITMAX & ILUMP
<netCDF_title>
<netCDF_institution>
<netCDF_source>
<netCDF_history>
<netCDF_references>
<netCDF_comments>
<netCDF_host>
<netCDF_convention>
<netCDF_contact>
<netCDF_basedate>

&metControl WindDragLimit=0.0020 /

! -- Begin Smagorinski Inputs --
!&SMAG_CONTROL
!SMAG_COMP_FLAG  = T,
!SMAG_UPPER_LIM  = 100.00,
!SMAG_LOWER_LIM  = 0.000001,
!outputSmagCoeff = T
!/
! -- End Smagorinski Inputs --

